*SPEF "ieee 1481-1999"
*DESIGN "wrapped_rgb_mixer"
*DATE "11:11:11 Fri 11 11, 1111"
*VENDOR "OpenRCX"
*PROGRAM "Parallel Extraction"
*VERSION "1.0"
*DESIGN_FLOW "NAME_SCOPE LOCAL" "PIN_CAP NONE"
*DIVIDER /
*DELIMITER :
*BUS_DELIMITER []
*T_UNIT 1 NS
*C_UNIT 1 PF
*R_UNIT 1 OHM
*L_UNIT 1 HENRY

*NAME_MAP
*1 active
*2 io_in[0]
*3 io_in[10]
*4 io_in[11]
*5 io_in[12]
*6 io_in[13]
*7 io_in[14]
*8 io_in[15]
*9 io_in[16]
*10 io_in[17]
*11 io_in[18]
*12 io_in[19]
*13 io_in[1]
*14 io_in[20]
*15 io_in[21]
*16 io_in[22]
*17 io_in[23]
*18 io_in[24]
*19 io_in[25]
*20 io_in[26]
*21 io_in[27]
*22 io_in[28]
*23 io_in[29]
*24 io_in[2]
*25 io_in[30]
*26 io_in[31]
*27 io_in[32]
*28 io_in[33]
*29 io_in[34]
*30 io_in[35]
*31 io_in[36]
*32 io_in[37]
*33 io_in[3]
*34 io_in[4]
*35 io_in[5]
*36 io_in[6]
*37 io_in[7]
*38 io_in[8]
*39 io_in[9]
*40 io_oeb[0]
*41 io_oeb[10]
*42 io_oeb[11]
*43 io_oeb[12]
*44 io_oeb[13]
*45 io_oeb[14]
*46 io_oeb[15]
*47 io_oeb[16]
*48 io_oeb[17]
*49 io_oeb[18]
*50 io_oeb[19]
*51 io_oeb[1]
*52 io_oeb[20]
*53 io_oeb[21]
*54 io_oeb[22]
*55 io_oeb[23]
*56 io_oeb[24]
*57 io_oeb[25]
*58 io_oeb[26]
*59 io_oeb[27]
*60 io_oeb[28]
*61 io_oeb[29]
*62 io_oeb[2]
*63 io_oeb[30]
*64 io_oeb[31]
*65 io_oeb[32]
*66 io_oeb[33]
*67 io_oeb[34]
*68 io_oeb[35]
*69 io_oeb[36]
*70 io_oeb[37]
*71 io_oeb[3]
*72 io_oeb[4]
*73 io_oeb[5]
*74 io_oeb[6]
*75 io_oeb[7]
*76 io_oeb[8]
*77 io_oeb[9]
*78 io_out[0]
*79 io_out[10]
*80 io_out[11]
*81 io_out[12]
*82 io_out[13]
*83 io_out[14]
*84 io_out[15]
*85 io_out[16]
*86 io_out[17]
*87 io_out[18]
*88 io_out[19]
*89 io_out[1]
*90 io_out[20]
*91 io_out[21]
*92 io_out[22]
*93 io_out[23]
*94 io_out[24]
*95 io_out[25]
*96 io_out[26]
*97 io_out[27]
*98 io_out[28]
*99 io_out[29]
*100 io_out[2]
*101 io_out[30]
*102 io_out[31]
*103 io_out[32]
*104 io_out[33]
*105 io_out[34]
*106 io_out[35]
*107 io_out[36]
*108 io_out[37]
*109 io_out[3]
*110 io_out[4]
*111 io_out[5]
*112 io_out[6]
*113 io_out[7]
*114 io_out[8]
*115 io_out[9]
*116 la1_data_in[0]
*117 la1_data_in[10]
*118 la1_data_in[11]
*119 la1_data_in[12]
*120 la1_data_in[13]
*121 la1_data_in[14]
*122 la1_data_in[15]
*123 la1_data_in[16]
*124 la1_data_in[17]
*125 la1_data_in[18]
*126 la1_data_in[19]
*127 la1_data_in[1]
*128 la1_data_in[20]
*129 la1_data_in[21]
*130 la1_data_in[22]
*131 la1_data_in[23]
*132 la1_data_in[24]
*133 la1_data_in[25]
*134 la1_data_in[26]
*135 la1_data_in[27]
*136 la1_data_in[28]
*137 la1_data_in[29]
*138 la1_data_in[2]
*139 la1_data_in[30]
*140 la1_data_in[31]
*141 la1_data_in[3]
*142 la1_data_in[4]
*143 la1_data_in[5]
*144 la1_data_in[6]
*145 la1_data_in[7]
*146 la1_data_in[8]
*147 la1_data_in[9]
*148 la1_data_out[0]
*149 la1_data_out[10]
*150 la1_data_out[11]
*151 la1_data_out[12]
*152 la1_data_out[13]
*153 la1_data_out[14]
*154 la1_data_out[15]
*155 la1_data_out[16]
*156 la1_data_out[17]
*157 la1_data_out[18]
*158 la1_data_out[19]
*159 la1_data_out[1]
*160 la1_data_out[20]
*161 la1_data_out[21]
*162 la1_data_out[22]
*163 la1_data_out[23]
*164 la1_data_out[24]
*165 la1_data_out[25]
*166 la1_data_out[26]
*167 la1_data_out[27]
*168 la1_data_out[28]
*169 la1_data_out[29]
*170 la1_data_out[2]
*171 la1_data_out[30]
*172 la1_data_out[31]
*173 la1_data_out[3]
*174 la1_data_out[4]
*175 la1_data_out[5]
*176 la1_data_out[6]
*177 la1_data_out[7]
*178 la1_data_out[8]
*179 la1_data_out[9]
*180 la1_oenb[0]
*181 la1_oenb[10]
*182 la1_oenb[11]
*183 la1_oenb[12]
*184 la1_oenb[13]
*185 la1_oenb[14]
*186 la1_oenb[15]
*187 la1_oenb[16]
*188 la1_oenb[17]
*189 la1_oenb[18]
*190 la1_oenb[19]
*191 la1_oenb[1]
*192 la1_oenb[20]
*193 la1_oenb[21]
*194 la1_oenb[22]
*195 la1_oenb[23]
*196 la1_oenb[24]
*197 la1_oenb[25]
*198 la1_oenb[26]
*199 la1_oenb[27]
*200 la1_oenb[28]
*201 la1_oenb[29]
*202 la1_oenb[2]
*203 la1_oenb[30]
*204 la1_oenb[31]
*205 la1_oenb[3]
*206 la1_oenb[4]
*207 la1_oenb[5]
*208 la1_oenb[6]
*209 la1_oenb[7]
*210 la1_oenb[8]
*211 la1_oenb[9]
*214 wb_clk_i
*215 _0000_
*216 _0001_
*217 _0002_
*218 _0003_
*219 _0004_
*220 _0005_
*221 _0006_
*222 _0007_
*223 _0008_
*224 _0009_
*225 _0010_
*226 _0011_
*227 _0012_
*228 _0013_
*229 _0014_
*230 _0015_
*231 _0016_
*232 _0017_
*233 _0018_
*234 _0019_
*235 _0020_
*236 _0021_
*237 _0022_
*238 _0023_
*239 _0024_
*240 _0025_
*241 _0026_
*242 _0027_
*243 _0028_
*244 _0029_
*245 _0030_
*246 _0031_
*247 _0032_
*248 _0033_
*249 _0034_
*250 _0035_
*251 _0036_
*252 _0037_
*253 _0038_
*254 _0039_
*255 _0040_
*256 _0041_
*257 _0042_
*258 _0043_
*259 _0044_
*260 _0045_
*261 _0046_
*262 _0047_
*263 _0048_
*264 _0049_
*265 _0050_
*266 _0051_
*267 _0052_
*268 _0053_
*269 _0054_
*270 _0055_
*271 _0056_
*272 _0057_
*273 _0058_
*274 _0059_
*275 _0060_
*276 _0061_
*277 _0062_
*278 _0063_
*279 _0064_
*280 _0065_
*281 _0066_
*282 _0067_
*283 _0068_
*284 _0069_
*285 _0070_
*286 _0071_
*287 _0072_
*288 _0073_
*289 _0074_
*290 _0075_
*291 _0076_
*292 _0077_
*293 _0078_
*294 _0079_
*295 _0080_
*296 _0081_
*297 _0082_
*298 _0083_
*299 _0084_
*300 _0085_
*301 _0086_
*302 _0087_
*303 _0088_
*304 _0089_
*305 _0090_
*306 _0091_
*307 _0092_
*308 _0093_
*309 _0094_
*310 _0095_
*311 _0096_
*312 _0097_
*313 _0098_
*314 _0099_
*315 _0100_
*316 _0101_
*317 _0102_
*318 _0103_
*319 _0104_
*320 _0105_
*321 _0106_
*322 _0107_
*323 _0108_
*324 _0109_
*325 _0110_
*326 _0111_
*327 _0112_
*328 _0113_
*329 _0114_
*330 _0115_
*331 _0116_
*332 _0117_
*333 _0118_
*334 _0119_
*335 _0120_
*336 _0121_
*337 _0122_
*338 _0123_
*339 _0124_
*340 _0125_
*341 _0126_
*342 _0127_
*343 _0128_
*344 _0129_
*345 _0130_
*346 _0131_
*347 _0132_
*348 _0133_
*349 _0134_
*350 _0135_
*351 _0136_
*352 _0137_
*353 _0138_
*354 _0139_
*355 _0140_
*356 _0141_
*357 _0142_
*358 _0143_
*359 _0144_
*360 _0145_
*361 _0146_
*362 _0147_
*363 _0148_
*364 _0149_
*365 _0150_
*366 _0151_
*367 _0152_
*368 _0153_
*369 _0154_
*370 _0155_
*371 _0156_
*372 _0157_
*373 _0158_
*374 _0159_
*375 _0160_
*376 _0161_
*377 _0162_
*378 _0163_
*379 _0164_
*380 _0165_
*381 _0166_
*382 _0167_
*383 _0168_
*384 _0169_
*385 _0170_
*386 _0171_
*387 _0172_
*388 _0173_
*389 _0174_
*390 _0175_
*391 _0176_
*392 _0177_
*393 _0178_
*394 _0179_
*395 _0180_
*396 _0181_
*397 _0182_
*398 _0183_
*399 _0184_
*400 _0185_
*401 _0186_
*402 _0187_
*403 _0188_
*404 _0189_
*405 _0190_
*406 _0191_
*407 _0192_
*408 _0193_
*409 _0194_
*410 _0195_
*411 _0196_
*412 _0197_
*413 _0198_
*414 _0199_
*415 _0200_
*416 _0201_
*417 _0202_
*418 _0203_
*419 _0204_
*420 _0205_
*421 _0206_
*422 _0207_
*423 _0208_
*424 _0209_
*425 _0210_
*426 _0211_
*427 _0212_
*428 _0213_
*429 _0214_
*430 _0215_
*431 _0216_
*432 _0217_
*433 _0218_
*434 _0219_
*435 _0220_
*436 _0221_
*437 _0222_
*438 _0223_
*439 _0224_
*440 _0225_
*441 _0226_
*442 _0227_
*443 _0228_
*444 _0229_
*445 _0230_
*446 _0231_
*447 _0232_
*448 _0233_
*449 _0234_
*450 _0235_
*451 _0236_
*452 _0237_
*453 _0238_
*454 _0239_
*455 _0240_
*456 _0241_
*457 _0242_
*458 _0243_
*459 _0244_
*460 _0245_
*461 _0246_
*462 _0247_
*463 _0248_
*464 _0249_
*465 _0250_
*466 _0251_
*467 _0252_
*468 _0253_
*469 _0254_
*470 _0255_
*471 _0256_
*472 _0257_
*473 _0258_
*474 _0259_
*475 _0260_
*476 _0261_
*477 _0262_
*478 _0263_
*479 _0264_
*480 _0265_
*481 _0266_
*482 _0267_
*483 _0268_
*484 _0269_
*485 _0270_
*486 _0271_
*487 _0272_
*488 _0273_
*489 _0274_
*490 _0275_
*491 _0276_
*492 _0277_
*493 _0278_
*494 _0279_
*495 _0280_
*496 _0281_
*497 _0282_
*498 _0283_
*499 _0284_
*500 _0285_
*501 _0286_
*502 _0287_
*503 _0288_
*504 _0289_
*505 _0290_
*506 _0291_
*507 _0292_
*508 _0293_
*509 _0294_
*510 _0295_
*511 _0296_
*512 _0297_
*513 _0298_
*514 _0299_
*515 _0300_
*516 _0301_
*517 _0302_
*518 _0303_
*519 _0304_
*520 _0305_
*521 _0306_
*522 _0307_
*523 _0308_
*524 _0309_
*525 _0310_
*526 _0311_
*527 _0312_
*528 _0313_
*529 _0314_
*530 _0315_
*531 _0316_
*532 _0317_
*533 _0318_
*534 _0319_
*535 _0320_
*536 _0321_
*537 _0322_
*538 _0323_
*539 _0324_
*540 _0325_
*541 _0326_
*542 _0327_
*543 _0328_
*544 _0329_
*545 _0330_
*546 _0331_
*547 _0332_
*548 _0333_
*549 _0334_
*550 _0335_
*551 _0336_
*552 _0337_
*553 _0338_
*554 _0339_
*555 _0340_
*556 _0341_
*557 _0342_
*558 _0343_
*559 _0344_
*560 _0345_
*561 _0346_
*562 _0347_
*563 _0348_
*564 _0349_
*565 _0350_
*566 _0351_
*567 _0352_
*568 _0353_
*569 _0354_
*570 _0355_
*571 _0356_
*572 _0357_
*573 _0358_
*574 _0359_
*575 _0360_
*576 _0361_
*577 _0362_
*578 _0363_
*579 _0364_
*580 _0365_
*581 _0366_
*582 _0367_
*583 _0368_
*584 _0369_
*585 _0370_
*586 _0371_
*587 _0372_
*588 _0373_
*589 _0374_
*590 _0375_
*591 _0376_
*592 _0377_
*593 _0378_
*594 _0379_
*595 _0380_
*596 _0381_
*597 _0382_
*598 _0383_
*599 _0384_
*600 _0385_
*601 _0386_
*602 _0387_
*603 _0388_
*604 _0389_
*605 _0390_
*606 _0391_
*607 _0392_
*608 _0393_
*609 _0394_
*610 _0395_
*611 _0396_
*612 _0397_
*613 _0398_
*614 _0399_
*615 _0400_
*616 _0401_
*617 _0402_
*618 _0403_
*619 _0404_
*620 _0405_
*621 _0406_
*622 _0407_
*623 _0408_
*624 _0409_
*625 _0410_
*626 _0411_
*627 _0412_
*628 _0413_
*629 _0414_
*630 _0415_
*631 _0416_
*632 _0417_
*633 _0418_
*634 _0419_
*635 _0420_
*636 _0421_
*637 _0422_
*638 _0423_
*639 _0424_
*640 _0425_
*641 _0426_
*642 _0427_
*643 _0428_
*644 _0429_
*645 _0430_
*646 _0431_
*647 _0432_
*648 _0433_
*649 _0434_
*650 _0435_
*651 _0436_
*652 _0437_
*653 _0438_
*654 _0439_
*655 _0440_
*656 _0441_
*657 _0442_
*658 _0443_
*659 _0444_
*660 _0445_
*661 _0446_
*662 _0447_
*663 _0448_
*664 _0449_
*665 _0450_
*666 _0451_
*667 _0452_
*668 _0453_
*669 _0454_
*670 _0455_
*671 _0456_
*672 _0457_
*673 _0458_
*674 _0459_
*675 _0460_
*676 _0461_
*677 _0462_
*678 _0463_
*679 _0464_
*680 _0465_
*681 _0466_
*682 _0467_
*683 _0468_
*684 _0469_
*685 _0470_
*686 _0471_
*687 _0472_
*688 _0473_
*689 _0474_
*690 _0475_
*691 _0476_
*692 _0477_
*693 _0478_
*694 _0479_
*695 _0480_
*696 _0481_
*697 _0482_
*698 _0483_
*699 _0484_
*700 _0485_
*701 _0486_
*702 _0487_
*703 _0488_
*704 _0489_
*705 _0490_
*706 _0491_
*707 _0492_
*708 _0493_
*709 _0494_
*710 _0495_
*711 _0496_
*712 _0497_
*713 _0498_
*714 _0499_
*715 _0500_
*716 _0501_
*717 _0502_
*718 _0503_
*719 _0504_
*720 _0505_
*721 _0506_
*722 _0507_
*723 _0508_
*724 _0509_
*725 _0510_
*726 _0511_
*727 _0512_
*728 _0513_
*729 _0514_
*730 _0515_
*731 _0516_
*732 _0517_
*733 _0518_
*734 _0519_
*735 _0520_
*736 _0521_
*737 _0522_
*738 _0523_
*739 _0524_
*740 _0525_
*741 _0526_
*742 _0527_
*743 _0528_
*744 _0529_
*745 _0530_
*746 _0531_
*747 _0532_
*748 _0533_
*749 _0534_
*750 _0535_
*751 _0536_
*752 _0537_
*753 _0538_
*754 _0539_
*755 _0540_
*756 _0541_
*757 _0542_
*758 _0543_
*759 _0544_
*760 _0545_
*761 _0546_
*762 _0547_
*763 _0548_
*764 _0549_
*765 _0550_
*766 _0551_
*767 _0552_
*768 _0553_
*769 _0554_
*770 _0555_
*771 _0556_
*772 _0557_
*773 _0558_
*774 _0559_
*775 _0560_
*776 _0561_
*777 _0562_
*778 _0563_
*779 _0564_
*780 _0565_
*781 _0566_
*782 _0567_
*783 _0568_
*784 _0569_
*785 _0570_
*786 _0571_
*787 _0572_
*788 _0573_
*789 _0574_
*790 _0575_
*791 _0576_
*792 _0577_
*793 _0578_
*794 _0579_
*795 _0580_
*796 _0581_
*797 _0582_
*798 _0583_
*799 _0584_
*800 _0585_
*801 _0586_
*802 _0587_
*803 _0588_
*804 _0589_
*805 _0590_
*806 _0591_
*807 _0592_
*808 _0593_
*809 _0594_
*810 _0595_
*811 _0596_
*812 _0597_
*813 _0598_
*814 _0599_
*815 _0600_
*816 _0601_
*817 _0602_
*818 clknet_0_wb_clk_i
*819 clknet_2_0_0_wb_clk_i
*820 clknet_2_1_0_wb_clk_i
*821 clknet_2_2_0_wb_clk_i
*822 clknet_2_3_0_wb_clk_i
*823 clknet_3_0_0_wb_clk_i
*824 clknet_3_1_0_wb_clk_i
*825 clknet_3_2_0_wb_clk_i
*826 clknet_3_3_0_wb_clk_i
*827 clknet_3_4_0_wb_clk_i
*828 clknet_3_5_0_wb_clk_i
*829 clknet_3_6_0_wb_clk_i
*830 clknet_3_7_0_wb_clk_i
*831 net1
*832 net10
*833 net100
*834 net101
*835 net102
*836 net103
*837 net104
*838 net105
*839 net106
*840 net107
*841 net108
*842 net109
*843 net11
*844 net110
*845 net111
*846 net112
*847 net113
*848 net12
*849 net13
*850 net14
*851 net15
*852 net16
*853 net17
*854 net18
*855 net19
*856 net2
*857 net20
*858 net21
*859 net22
*860 net23
*861 net24
*862 net25
*863 net26
*864 net27
*865 net28
*866 net29
*867 net3
*868 net30
*869 net31
*870 net32
*871 net33
*872 net34
*873 net35
*874 net36
*875 net37
*876 net38
*877 net39
*878 net4
*879 net40
*880 net41
*881 net42
*882 net43
*883 net44
*884 net45
*885 net46
*886 net47
*887 net48
*888 net49
*889 net5
*890 net50
*891 net51
*892 net52
*893 net53
*894 net54
*895 net55
*896 net56
*897 net57
*898 net58
*899 net59
*900 net6
*901 net60
*902 net61
*903 net62
*904 net63
*905 net64
*906 net65
*907 net66
*908 net67
*909 net68
*910 net69
*911 net7
*912 net70
*913 net71
*914 net72
*915 net73
*916 net74
*917 net75
*918 net76
*919 net77
*920 net78
*921 net79
*922 net8
*923 net80
*924 net81
*925 net82
*926 net83
*927 net84
*928 net85
*929 net86
*930 net87
*931 net88
*932 net89
*933 net9
*934 net90
*935 net91
*936 net92
*937 net93
*938 net94
*939 net95
*940 net96
*941 net97
*942 net98
*943 net99
*944 rgb_mixer0\.debounce0_a\.button_hist\[0\]
*945 rgb_mixer0\.debounce0_a\.button_hist\[1\]
*946 rgb_mixer0\.debounce0_a\.button_hist\[2\]
*947 rgb_mixer0\.debounce0_a\.button_hist\[3\]
*948 rgb_mixer0\.debounce0_a\.button_hist\[4\]
*949 rgb_mixer0\.debounce0_a\.button_hist\[5\]
*950 rgb_mixer0\.debounce0_a\.button_hist\[6\]
*951 rgb_mixer0\.debounce0_a\.button_hist\[7\]
*952 rgb_mixer0\.debounce0_a\.debounced
*953 rgb_mixer0\.debounce0_b\.button_hist\[0\]
*954 rgb_mixer0\.debounce0_b\.button_hist\[1\]
*955 rgb_mixer0\.debounce0_b\.button_hist\[2\]
*956 rgb_mixer0\.debounce0_b\.button_hist\[3\]
*957 rgb_mixer0\.debounce0_b\.button_hist\[4\]
*958 rgb_mixer0\.debounce0_b\.button_hist\[5\]
*959 rgb_mixer0\.debounce0_b\.button_hist\[6\]
*960 rgb_mixer0\.debounce0_b\.button_hist\[7\]
*961 rgb_mixer0\.debounce0_b\.debounced
*962 rgb_mixer0\.debounce1_a\.button_hist\[0\]
*963 rgb_mixer0\.debounce1_a\.button_hist\[1\]
*964 rgb_mixer0\.debounce1_a\.button_hist\[2\]
*965 rgb_mixer0\.debounce1_a\.button_hist\[3\]
*966 rgb_mixer0\.debounce1_a\.button_hist\[4\]
*967 rgb_mixer0\.debounce1_a\.button_hist\[5\]
*968 rgb_mixer0\.debounce1_a\.button_hist\[6\]
*969 rgb_mixer0\.debounce1_a\.button_hist\[7\]
*970 rgb_mixer0\.debounce1_a\.debounced
*971 rgb_mixer0\.debounce1_b\.button_hist\[0\]
*972 rgb_mixer0\.debounce1_b\.button_hist\[1\]
*973 rgb_mixer0\.debounce1_b\.button_hist\[2\]
*974 rgb_mixer0\.debounce1_b\.button_hist\[3\]
*975 rgb_mixer0\.debounce1_b\.button_hist\[4\]
*976 rgb_mixer0\.debounce1_b\.button_hist\[5\]
*977 rgb_mixer0\.debounce1_b\.button_hist\[6\]
*978 rgb_mixer0\.debounce1_b\.button_hist\[7\]
*979 rgb_mixer0\.debounce1_b\.debounced
*980 rgb_mixer0\.debounce2_a\.button_hist\[0\]
*981 rgb_mixer0\.debounce2_a\.button_hist\[1\]
*982 rgb_mixer0\.debounce2_a\.button_hist\[2\]
*983 rgb_mixer0\.debounce2_a\.button_hist\[3\]
*984 rgb_mixer0\.debounce2_a\.button_hist\[4\]
*985 rgb_mixer0\.debounce2_a\.button_hist\[5\]
*986 rgb_mixer0\.debounce2_a\.button_hist\[6\]
*987 rgb_mixer0\.debounce2_a\.button_hist\[7\]
*988 rgb_mixer0\.debounce2_a\.debounced
*989 rgb_mixer0\.debounce2_b\.button_hist\[0\]
*990 rgb_mixer0\.debounce2_b\.button_hist\[1\]
*991 rgb_mixer0\.debounce2_b\.button_hist\[2\]
*992 rgb_mixer0\.debounce2_b\.button_hist\[3\]
*993 rgb_mixer0\.debounce2_b\.button_hist\[4\]
*994 rgb_mixer0\.debounce2_b\.button_hist\[5\]
*995 rgb_mixer0\.debounce2_b\.button_hist\[6\]
*996 rgb_mixer0\.debounce2_b\.button_hist\[7\]
*997 rgb_mixer0\.debounce2_b\.debounced
*998 rgb_mixer0\.enc0\[0\]
*999 rgb_mixer0\.enc0\[1\]
*1000 rgb_mixer0\.enc0\[2\]
*1001 rgb_mixer0\.enc0\[3\]
*1002 rgb_mixer0\.enc0\[4\]
*1003 rgb_mixer0\.enc0\[5\]
*1004 rgb_mixer0\.enc0\[6\]
*1005 rgb_mixer0\.enc0\[7\]
*1006 rgb_mixer0\.enc1\[0\]
*1007 rgb_mixer0\.enc1\[1\]
*1008 rgb_mixer0\.enc1\[2\]
*1009 rgb_mixer0\.enc1\[3\]
*1010 rgb_mixer0\.enc1\[4\]
*1011 rgb_mixer0\.enc1\[5\]
*1012 rgb_mixer0\.enc1\[6\]
*1013 rgb_mixer0\.enc1\[7\]
*1014 rgb_mixer0\.enc2\[0\]
*1015 rgb_mixer0\.enc2\[1\]
*1016 rgb_mixer0\.enc2\[2\]
*1017 rgb_mixer0\.enc2\[3\]
*1018 rgb_mixer0\.enc2\[4\]
*1019 rgb_mixer0\.enc2\[5\]
*1020 rgb_mixer0\.enc2\[6\]
*1021 rgb_mixer0\.enc2\[7\]
*1022 rgb_mixer0\.encoder0\.old_a
*1023 rgb_mixer0\.encoder0\.old_b
*1024 rgb_mixer0\.encoder1\.old_a
*1025 rgb_mixer0\.encoder1\.old_b
*1026 rgb_mixer0\.encoder2\.old_a
*1027 rgb_mixer0\.encoder2\.old_b
*1028 rgb_mixer0\.pwm0\.count\[0\]
*1029 rgb_mixer0\.pwm0\.count\[1\]
*1030 rgb_mixer0\.pwm0\.count\[2\]
*1031 rgb_mixer0\.pwm0\.count\[3\]
*1032 rgb_mixer0\.pwm0\.count\[4\]
*1033 rgb_mixer0\.pwm0\.count\[5\]
*1034 rgb_mixer0\.pwm0\.count\[6\]
*1035 rgb_mixer0\.pwm0\.count\[7\]
*1036 rgb_mixer0\.pwm0\.out
*1037 rgb_mixer0\.pwm1\.count\[0\]
*1038 rgb_mixer0\.pwm1\.count\[1\]
*1039 rgb_mixer0\.pwm1\.count\[2\]
*1040 rgb_mixer0\.pwm1\.count\[3\]
*1041 rgb_mixer0\.pwm1\.count\[4\]
*1042 rgb_mixer0\.pwm1\.count\[5\]
*1043 rgb_mixer0\.pwm1\.count\[6\]
*1044 rgb_mixer0\.pwm1\.count\[7\]
*1045 rgb_mixer0\.pwm1\.out
*1046 rgb_mixer0\.pwm2\.count\[0\]
*1047 rgb_mixer0\.pwm2\.count\[1\]
*1048 rgb_mixer0\.pwm2\.count\[2\]
*1049 rgb_mixer0\.pwm2\.count\[3\]
*1050 rgb_mixer0\.pwm2\.count\[4\]
*1051 rgb_mixer0\.pwm2\.count\[5\]
*1052 rgb_mixer0\.pwm2\.count\[6\]
*1053 rgb_mixer0\.pwm2\.count\[7\]
*1054 rgb_mixer0\.pwm2\.out
*1055 ANTENNA_0
*1056 ANTENNA_1
*1057 ANTENNA_2
*1058 ANTENNA_3
*1059 ANTENNA_4
*1060 ANTENNA_5
*1061 ANTENNA_6
*1062 ANTENNA_7
*1063 ANTENNA_8
*1064 FILLER_0_107
*1065 FILLER_0_111
*1066 FILLER_0_113
*1067 FILLER_0_120
*1068 FILLER_0_132
*1069 FILLER_0_141
*1070 FILLER_0_147
*1071 FILLER_0_162
*1072 FILLER_0_169
*1073 FILLER_0_177
*1074 FILLER_0_184
*1075 FILLER_0_218
*1076 FILLER_0_225
*1077 FILLER_0_24
*1078 FILLER_0_248
*1079 FILLER_0_253
*1080 FILLER_0_276
*1081 FILLER_0_284
*1082 FILLER_0_29
*1083 FILLER_0_293
*1084 FILLER_0_52
*1085 FILLER_0_78
*1086 FILLER_0_85
*1087 FILLER_10_109
*1088 FILLER_10_121
*1089 FILLER_10_133
*1090 FILLER_10_139
*1091 FILLER_10_141
*1092 FILLER_10_153
*1093 FILLER_10_165
*1094 FILLER_10_177
*1095 FILLER_10_189
*1096 FILLER_10_195
*1097 FILLER_10_197
*1098 FILLER_10_209
*1099 FILLER_10_221
*1100 FILLER_10_233
*1101 FILLER_10_24
*1102 FILLER_10_245
*1103 FILLER_10_251
*1104 FILLER_10_253
*1105 FILLER_10_265
*1106 FILLER_10_273
*1107 FILLER_10_295
*1108 FILLER_10_32
*1109 FILLER_10_44
*1110 FILLER_10_56
*1111 FILLER_10_68
*1112 FILLER_10_80
*1113 FILLER_10_85
*1114 FILLER_10_97
*1115 FILLER_11_105
*1116 FILLER_11_11
*1117 FILLER_11_111
*1118 FILLER_11_113
*1119 FILLER_11_125
*1120 FILLER_11_137
*1121 FILLER_11_149
*1122 FILLER_11_161
*1123 FILLER_11_167
*1124 FILLER_11_169
*1125 FILLER_11_18
*1126 FILLER_11_181
*1127 FILLER_11_193
*1128 FILLER_11_205
*1129 FILLER_11_217
*1130 FILLER_11_223
*1131 FILLER_11_225
*1132 FILLER_11_237
*1133 FILLER_11_249
*1134 FILLER_11_25
*1135 FILLER_11_261
*1136 FILLER_11_273
*1137 FILLER_11_279
*1138 FILLER_11_281
*1139 FILLER_11_285
*1140 FILLER_11_292
*1141 FILLER_11_298
*1142 FILLER_11_3
*1143 FILLER_11_37
*1144 FILLER_11_49
*1145 FILLER_11_55
*1146 FILLER_11_57
*1147 FILLER_11_69
*1148 FILLER_11_7
*1149 FILLER_11_81
*1150 FILLER_11_93
*1151 FILLER_12_109
*1152 FILLER_12_121
*1153 FILLER_12_133
*1154 FILLER_12_139
*1155 FILLER_12_141
*1156 FILLER_12_153
*1157 FILLER_12_165
*1158 FILLER_12_177
*1159 FILLER_12_189
*1160 FILLER_12_195
*1161 FILLER_12_197
*1162 FILLER_12_209
*1163 FILLER_12_221
*1164 FILLER_12_233
*1165 FILLER_12_24
*1166 FILLER_12_245
*1167 FILLER_12_251
*1168 FILLER_12_253
*1169 FILLER_12_265
*1170 FILLER_12_273
*1171 FILLER_12_29
*1172 FILLER_12_295
*1173 FILLER_12_41
*1174 FILLER_12_53
*1175 FILLER_12_65
*1176 FILLER_12_77
*1177 FILLER_12_83
*1178 FILLER_12_85
*1179 FILLER_12_97
*1180 FILLER_13_105
*1181 FILLER_13_111
*1182 FILLER_13_113
*1183 FILLER_13_125
*1184 FILLER_13_137
*1185 FILLER_13_149
*1186 FILLER_13_15
*1187 FILLER_13_161
*1188 FILLER_13_167
*1189 FILLER_13_169
*1190 FILLER_13_181
*1191 FILLER_13_193
*1192 FILLER_13_205
*1193 FILLER_13_217
*1194 FILLER_13_223
*1195 FILLER_13_225
*1196 FILLER_13_237
*1197 FILLER_13_249
*1198 FILLER_13_261
*1199 FILLER_13_27
*1200 FILLER_13_273
*1201 FILLER_13_279
*1202 FILLER_13_281
*1203 FILLER_13_285
*1204 FILLER_13_292
*1205 FILLER_13_298
*1206 FILLER_13_3
*1207 FILLER_13_39
*1208 FILLER_13_51
*1209 FILLER_13_55
*1210 FILLER_13_57
*1211 FILLER_13_69
*1212 FILLER_13_8
*1213 FILLER_13_81
*1214 FILLER_13_93
*1215 FILLER_14_109
*1216 FILLER_14_11
*1217 FILLER_14_121
*1218 FILLER_14_133
*1219 FILLER_14_139
*1220 FILLER_14_141
*1221 FILLER_14_153
*1222 FILLER_14_165
*1223 FILLER_14_177
*1224 FILLER_14_189
*1225 FILLER_14_195
*1226 FILLER_14_197
*1227 FILLER_14_209
*1228 FILLER_14_221
*1229 FILLER_14_23
*1230 FILLER_14_233
*1231 FILLER_14_245
*1232 FILLER_14_251
*1233 FILLER_14_253
*1234 FILLER_14_265
*1235 FILLER_14_27
*1236 FILLER_14_273
*1237 FILLER_14_29
*1238 FILLER_14_295
*1239 FILLER_14_3
*1240 FILLER_14_41
*1241 FILLER_14_53
*1242 FILLER_14_65
*1243 FILLER_14_7
*1244 FILLER_14_77
*1245 FILLER_14_83
*1246 FILLER_14_85
*1247 FILLER_14_97
*1248 FILLER_15_105
*1249 FILLER_15_111
*1250 FILLER_15_113
*1251 FILLER_15_125
*1252 FILLER_15_137
*1253 FILLER_15_149
*1254 FILLER_15_161
*1255 FILLER_15_167
*1256 FILLER_15_169
*1257 FILLER_15_181
*1258 FILLER_15_193
*1259 FILLER_15_205
*1260 FILLER_15_217
*1261 FILLER_15_223
*1262 FILLER_15_225
*1263 FILLER_15_237
*1264 FILLER_15_249
*1265 FILLER_15_25
*1266 FILLER_15_261
*1267 FILLER_15_273
*1268 FILLER_15_279
*1269 FILLER_15_281
*1270 FILLER_15_286
*1271 FILLER_15_293
*1272 FILLER_15_3
*1273 FILLER_15_37
*1274 FILLER_15_49
*1275 FILLER_15_55
*1276 FILLER_15_57
*1277 FILLER_15_69
*1278 FILLER_15_81
*1279 FILLER_15_93
*1280 FILLER_16_109
*1281 FILLER_16_121
*1282 FILLER_16_133
*1283 FILLER_16_139
*1284 FILLER_16_141
*1285 FILLER_16_153
*1286 FILLER_16_165
*1287 FILLER_16_177
*1288 FILLER_16_189
*1289 FILLER_16_195
*1290 FILLER_16_197
*1291 FILLER_16_209
*1292 FILLER_16_221
*1293 FILLER_16_233
*1294 FILLER_16_24
*1295 FILLER_16_245
*1296 FILLER_16_251
*1297 FILLER_16_253
*1298 FILLER_16_265
*1299 FILLER_16_273
*1300 FILLER_16_295
*1301 FILLER_16_32
*1302 FILLER_16_44
*1303 FILLER_16_56
*1304 FILLER_16_68
*1305 FILLER_16_80
*1306 FILLER_16_85
*1307 FILLER_16_97
*1308 FILLER_17_10
*1309 FILLER_17_105
*1310 FILLER_17_111
*1311 FILLER_17_113
*1312 FILLER_17_125
*1313 FILLER_17_137
*1314 FILLER_17_149
*1315 FILLER_17_161
*1316 FILLER_17_167
*1317 FILLER_17_169
*1318 FILLER_17_17
*1319 FILLER_17_181
*1320 FILLER_17_193
*1321 FILLER_17_205
*1322 FILLER_17_217
*1323 FILLER_17_223
*1324 FILLER_17_225
*1325 FILLER_17_237
*1326 FILLER_17_24
*1327 FILLER_17_249
*1328 FILLER_17_261
*1329 FILLER_17_273
*1330 FILLER_17_279
*1331 FILLER_17_281
*1332 FILLER_17_287
*1333 FILLER_17_295
*1334 FILLER_17_3
*1335 FILLER_17_36
*1336 FILLER_17_48
*1337 FILLER_17_57
*1338 FILLER_17_69
*1339 FILLER_17_81
*1340 FILLER_17_93
*1341 FILLER_18_109
*1342 FILLER_18_121
*1343 FILLER_18_133
*1344 FILLER_18_139
*1345 FILLER_18_141
*1346 FILLER_18_153
*1347 FILLER_18_165
*1348 FILLER_18_177
*1349 FILLER_18_189
*1350 FILLER_18_195
*1351 FILLER_18_197
*1352 FILLER_18_209
*1353 FILLER_18_221
*1354 FILLER_18_233
*1355 FILLER_18_24
*1356 FILLER_18_245
*1357 FILLER_18_251
*1358 FILLER_18_253
*1359 FILLER_18_265
*1360 FILLER_18_277
*1361 FILLER_18_283
*1362 FILLER_18_287
*1363 FILLER_18_29
*1364 FILLER_18_294
*1365 FILLER_18_298
*1366 FILLER_18_41
*1367 FILLER_18_53
*1368 FILLER_18_65
*1369 FILLER_18_77
*1370 FILLER_18_83
*1371 FILLER_18_85
*1372 FILLER_18_97
*1373 FILLER_19_105
*1374 FILLER_19_111
*1375 FILLER_19_113
*1376 FILLER_19_125
*1377 FILLER_19_137
*1378 FILLER_19_149
*1379 FILLER_19_161
*1380 FILLER_19_167
*1381 FILLER_19_169
*1382 FILLER_19_181
*1383 FILLER_19_193
*1384 FILLER_19_205
*1385 FILLER_19_217
*1386 FILLER_19_223
*1387 FILLER_19_225
*1388 FILLER_19_237
*1389 FILLER_19_24
*1390 FILLER_19_249
*1391 FILLER_19_261
*1392 FILLER_19_276
*1393 FILLER_19_281
*1394 FILLER_19_287
*1395 FILLER_19_294
*1396 FILLER_19_298
*1397 FILLER_19_36
*1398 FILLER_19_48
*1399 FILLER_19_57
*1400 FILLER_19_69
*1401 FILLER_19_81
*1402 FILLER_19_93
*1403 FILLER_1_108
*1404 FILLER_1_113
*1405 FILLER_1_136
*1406 FILLER_1_163
*1407 FILLER_1_167
*1408 FILLER_1_169
*1409 FILLER_1_177
*1410 FILLER_1_182
*1411 FILLER_1_189
*1412 FILLER_1_214
*1413 FILLER_1_222
*1414 FILLER_1_225
*1415 FILLER_1_247
*1416 FILLER_1_276
*1417 FILLER_1_284
*1418 FILLER_1_291
*1419 FILLER_1_3
*1420 FILLER_1_34
*1421 FILLER_1_41
*1422 FILLER_1_45
*1423 FILLER_1_49
*1424 FILLER_1_55
*1425 FILLER_1_57
*1426 FILLER_1_84
*1427 FILLER_1_9
*1428 FILLER_1_92
*1429 FILLER_1_96
*1430 FILLER_20_109
*1431 FILLER_20_121
*1432 FILLER_20_133
*1433 FILLER_20_139
*1434 FILLER_20_141
*1435 FILLER_20_15
*1436 FILLER_20_153
*1437 FILLER_20_165
*1438 FILLER_20_177
*1439 FILLER_20_189
*1440 FILLER_20_195
*1441 FILLER_20_197
*1442 FILLER_20_209
*1443 FILLER_20_22
*1444 FILLER_20_221
*1445 FILLER_20_233
*1446 FILLER_20_245
*1447 FILLER_20_251
*1448 FILLER_20_253
*1449 FILLER_20_261
*1450 FILLER_20_267
*1451 FILLER_20_274
*1452 FILLER_20_282
*1453 FILLER_20_286
*1454 FILLER_20_29
*1455 FILLER_20_293
*1456 FILLER_20_3
*1457 FILLER_20_41
*1458 FILLER_20_53
*1459 FILLER_20_65
*1460 FILLER_20_77
*1461 FILLER_20_8
*1462 FILLER_20_83
*1463 FILLER_20_85
*1464 FILLER_20_97
*1465 FILLER_21_10
*1466 FILLER_21_105
*1467 FILLER_21_111
*1468 FILLER_21_113
*1469 FILLER_21_125
*1470 FILLER_21_137
*1471 FILLER_21_149
*1472 FILLER_21_161
*1473 FILLER_21_167
*1474 FILLER_21_169
*1475 FILLER_21_181
*1476 FILLER_21_193
*1477 FILLER_21_205
*1478 FILLER_21_217
*1479 FILLER_21_22
*1480 FILLER_21_223
*1481 FILLER_21_225
*1482 FILLER_21_237
*1483 FILLER_21_249
*1484 FILLER_21_257
*1485 FILLER_21_263
*1486 FILLER_21_270
*1487 FILLER_21_278
*1488 FILLER_21_281
*1489 FILLER_21_285
*1490 FILLER_21_292
*1491 FILLER_21_298
*1492 FILLER_21_3
*1493 FILLER_21_34
*1494 FILLER_21_46
*1495 FILLER_21_54
*1496 FILLER_21_57
*1497 FILLER_21_69
*1498 FILLER_21_81
*1499 FILLER_21_93
*1500 FILLER_22_109
*1501 FILLER_22_121
*1502 FILLER_22_133
*1503 FILLER_22_139
*1504 FILLER_22_141
*1505 FILLER_22_153
*1506 FILLER_22_165
*1507 FILLER_22_177
*1508 FILLER_22_189
*1509 FILLER_22_195
*1510 FILLER_22_197
*1511 FILLER_22_209
*1512 FILLER_22_221
*1513 FILLER_22_233
*1514 FILLER_22_24
*1515 FILLER_22_248
*1516 FILLER_22_253
*1517 FILLER_22_257
*1518 FILLER_22_261
*1519 FILLER_22_265
*1520 FILLER_22_269
*1521 FILLER_22_273
*1522 FILLER_22_29
*1523 FILLER_22_295
*1524 FILLER_22_41
*1525 FILLER_22_53
*1526 FILLER_22_65
*1527 FILLER_22_77
*1528 FILLER_22_83
*1529 FILLER_22_85
*1530 FILLER_22_97
*1531 FILLER_23_105
*1532 FILLER_23_111
*1533 FILLER_23_113
*1534 FILLER_23_125
*1535 FILLER_23_137
*1536 FILLER_23_149
*1537 FILLER_23_15
*1538 FILLER_23_161
*1539 FILLER_23_167
*1540 FILLER_23_169
*1541 FILLER_23_181
*1542 FILLER_23_193
*1543 FILLER_23_205
*1544 FILLER_23_217
*1545 FILLER_23_223
*1546 FILLER_23_225
*1547 FILLER_23_237
*1548 FILLER_23_248
*1549 FILLER_23_255
*1550 FILLER_23_262
*1551 FILLER_23_269
*1552 FILLER_23_27
*1553 FILLER_23_276
*1554 FILLER_23_281
*1555 FILLER_23_285
*1556 FILLER_23_293
*1557 FILLER_23_3
*1558 FILLER_23_39
*1559 FILLER_23_51
*1560 FILLER_23_55
*1561 FILLER_23_57
*1562 FILLER_23_69
*1563 FILLER_23_8
*1564 FILLER_23_81
*1565 FILLER_23_93
*1566 FILLER_24_109
*1567 FILLER_24_121
*1568 FILLER_24_133
*1569 FILLER_24_139
*1570 FILLER_24_141
*1571 FILLER_24_153
*1572 FILLER_24_165
*1573 FILLER_24_173
*1574 FILLER_24_177
*1575 FILLER_24_189
*1576 FILLER_24_195
*1577 FILLER_24_197
*1578 FILLER_24_209
*1579 FILLER_24_221
*1580 FILLER_24_229
*1581 FILLER_24_233
*1582 FILLER_24_24
*1583 FILLER_24_240
*1584 FILLER_24_248
*1585 FILLER_24_257
*1586 FILLER_24_265
*1587 FILLER_24_273
*1588 FILLER_24_29
*1589 FILLER_24_295
*1590 FILLER_24_41
*1591 FILLER_24_53
*1592 FILLER_24_65
*1593 FILLER_24_77
*1594 FILLER_24_83
*1595 FILLER_24_85
*1596 FILLER_24_97
*1597 FILLER_25_105
*1598 FILLER_25_111
*1599 FILLER_25_113
*1600 FILLER_25_125
*1601 FILLER_25_137
*1602 FILLER_25_149
*1603 FILLER_25_161
*1604 FILLER_25_167
*1605 FILLER_25_169
*1606 FILLER_25_175
*1607 FILLER_25_18
*1608 FILLER_25_183
*1609 FILLER_25_189
*1610 FILLER_25_201
*1611 FILLER_25_205
*1612 FILLER_25_209
*1613 FILLER_25_213
*1614 FILLER_25_217
*1615 FILLER_25_223
*1616 FILLER_25_225
*1617 FILLER_25_230
*1618 FILLER_25_237
*1619 FILLER_25_245
*1620 FILLER_25_253
*1621 FILLER_25_276
*1622 FILLER_25_281
*1623 FILLER_25_289
*1624 FILLER_25_297
*1625 FILLER_25_30
*1626 FILLER_25_42
*1627 FILLER_25_54
*1628 FILLER_25_57
*1629 FILLER_25_6
*1630 FILLER_25_69
*1631 FILLER_25_81
*1632 FILLER_25_93
*1633 FILLER_26_109
*1634 FILLER_26_121
*1635 FILLER_26_133
*1636 FILLER_26_139
*1637 FILLER_26_141
*1638 FILLER_26_153
*1639 FILLER_26_16
*1640 FILLER_26_161
*1641 FILLER_26_165
*1642 FILLER_26_185
*1643 FILLER_26_192
*1644 FILLER_26_197
*1645 FILLER_26_201
*1646 FILLER_26_206
*1647 FILLER_26_213
*1648 FILLER_26_224
*1649 FILLER_26_232
*1650 FILLER_26_240
*1651 FILLER_26_247
*1652 FILLER_26_251
*1653 FILLER_26_253
*1654 FILLER_26_270
*1655 FILLER_26_29
*1656 FILLER_26_295
*1657 FILLER_26_3
*1658 FILLER_26_41
*1659 FILLER_26_53
*1660 FILLER_26_65
*1661 FILLER_26_77
*1662 FILLER_26_83
*1663 FILLER_26_85
*1664 FILLER_26_9
*1665 FILLER_26_97
*1666 FILLER_27_105
*1667 FILLER_27_111
*1668 FILLER_27_113
*1669 FILLER_27_125
*1670 FILLER_27_137
*1671 FILLER_27_149
*1672 FILLER_27_157
*1673 FILLER_27_164
*1674 FILLER_27_179
*1675 FILLER_27_199
*1676 FILLER_27_219
*1677 FILLER_27_223
*1678 FILLER_27_24
*1679 FILLER_27_241
*1680 FILLER_27_261
*1681 FILLER_27_270
*1682 FILLER_27_278
*1683 FILLER_27_286
*1684 FILLER_27_294
*1685 FILLER_27_298
*1686 FILLER_27_36
*1687 FILLER_27_48
*1688 FILLER_27_57
*1689 FILLER_27_69
*1690 FILLER_27_81
*1691 FILLER_27_93
*1692 FILLER_28_109
*1693 FILLER_28_121
*1694 FILLER_28_133
*1695 FILLER_28_139
*1696 FILLER_28_141
*1697 FILLER_28_156
*1698 FILLER_28_176
*1699 FILLER_28_190
*1700 FILLER_28_202
*1701 FILLER_28_211
*1702 FILLER_28_215
*1703 FILLER_28_232
*1704 FILLER_28_24
*1705 FILLER_28_240
*1706 FILLER_28_248
*1707 FILLER_28_269
*1708 FILLER_28_273
*1709 FILLER_28_29
*1710 FILLER_28_295
*1711 FILLER_28_41
*1712 FILLER_28_53
*1713 FILLER_28_65
*1714 FILLER_28_77
*1715 FILLER_28_83
*1716 FILLER_28_85
*1717 FILLER_28_97